---- qbsp / ericw-tools v0.18.1 ----
Input file: Quake_Multiplayer_Map.map
Output file: Quake_Multiplayer_Map.bsp

---- LoadMapFile ----
*** WARNING 06: No info_player_deathmatch entities in level
          130 faces
           23 brushes
            6 entities
           11 unique texnames
           45 texinfo

Opened WAD: ../wads/prototype_1_2.wad
Processing hull 0...
---- Brush_LoadEntity ----
           23 brushes
           39 planes
---- CSGFaces ----
          130 brushfaces
          103 csgfaces
          102 mergedfaces
---- SolidBSP ----
          132 split nodes
           52 solid leafs
           81 empty leafs
            0 water leafs
            0 detail leafs
            0 detail illusionary leafs
            0 detail fence leafs
            0 illusionary visblocker leafs
         2472 leaffaces
         2451 nodefaces
---- Portalize ----
           81 vis leafs
           81 vis clusters
          199 vis portals
---- FillOutside ----
           69 outleafs
---- MergeAll ----
           33 mergefaces
---- SolidBSP ----
           31 split nodes
           24 solid leafs
            8 empty leafs
            0 water leafs
            0 detail leafs
            0 detail illusionary leafs
            0 detail fence leafs
            0 illusionary visblocker leafs
          696 leaffaces
          696 nodefaces
---- Portalize ----
            8 vis leafs
            8 vis clusters
           17 vis portals
---- Tjunc ----
          172 world edges
         1650 edge points
          152 edges added by tjunctions
            0 faces added by tjunctions
---- MakeFaceEdges ----
---- GrowRegions ----
Processing hull 1...
Processing hull 2...
*** WARNING 19: No entities in empty space -- no filling performed (hull 2)
---- WriteBSPFile ----
Wrote Quake_Multiplayer_Map.bsp
           71 planes             1420
          774 vertexes           9288
           31 nodes               744
           17 texinfo             680
          696 faces             13920
          220 clipnodes          1760
            9 leafs               252
          696 marksurfaces       1392
         2936 surfedges         11744
         1469 edges              5876
           11 textures         154168
              lightdata             0
              visdata               0
              entdata             137

0.252 seconds elapsed
Peak memory usage: 4436104 (4.2M)
