---- qbsp / ericw-tools v0.18.1 ----
Input file: Quake_Multiplayer_Map.map
Output file: Quake_Multiplayer_Map.bsp

---- LoadMapFile ----
*** WARNING 05: No info_player_start entity in level
         2614 faces
          437 brushes
           16 entities
           16 unique texnames
          163 texinfo

Opened WAD: ../wads/prototype_1_2.wad
Processing hull 0...
---- Brush_LoadEntity ----
           11 brushes
           21 planes
---- CSGFaces ----
           66 brushfaces
           56 csgfaces
           56 mergedfaces
---- SolidBSP ----
           59 split nodes
           20 solid leafs
           40 empty leafs
            0 water leafs
            0 detail leafs
            0 detail illusionary leafs
            0 detail fence leafs
            0 illusionary visblocker leafs
         2497 leaffaces
         2497 nodefaces
---- Portalize ----
           40 vis leafs
           40 vis clusters
           88 vis portals
---- FillOutside ----
           35 outleafs
---- MergeAll ----
           14 mergefaces
---- SolidBSP ----
           22 split nodes
           18 solid leafs
            5 empty leafs
            0 water leafs
            0 detail leafs
            0 detail illusionary leafs
            0 detail fence leafs
            0 illusionary visblocker leafs
          785 leaffaces
          785 nodefaces
---- Portalize ----
            5 vis leafs
            5 vis clusters
            8 vis portals
---- Tjunc ----
          173 world edges
         1846 edge points
          194 edges added by tjunctions
            0 faces added by tjunctions
---- MakeFaceEdges ----
---- GrowRegions ----
Processing hull 1...
*** WARNING 19: No entities in empty space -- no filling performed (hull 1)
Processing hull 2...
*** WARNING 19: No entities in empty space -- no filling performed (hull 2)
---- WriteBSPFile ----
Wrote Quake_Multiplayer_Map.bsp
          485 planes             9700
        10051 vertexes         120612
         1729 nodes             41496
          139 texinfo            5560
         8389 faces            167780
        10594 clipnodes         84752
         1227 leafs             34356
         8601 marksurfaces      17202
        33711 surfedges        134844
        20942 edges             83768
           16 textures         193828
              lightdata             0
              visdata               0
              entdata            1362

0.568 seconds elapsed
Peak memory usage: 28722282 (27.4M)
