---- qbsp / ericw-tools v0.18.1 ----
Input file: Quake_Multiplayer_Map.map
Output file: Quake_Multiplayer_Map.bsp

---- LoadMapFile ----
*** WARNING 06: No info_player_deathmatch entities in level
         2614 faces
          437 brushes
           16 entities
           16 unique texnames
          163 texinfo

Opened WAD: ../wads/prototype_1_2.wad
Processing hull 0...
---- Brush_LoadEntity ----
           11 brushes
           21 planes
---- CSGFaces ----
           66 brushfaces
           52 csgfaces
           52 mergedfaces
---- SolidBSP ----
           62 split nodes
           21 solid leafs
           42 empty leafs
            0 water leafs
            0 detail leafs
            0 detail illusionary leafs
            0 detail fence leafs
            0 illusionary visblocker leafs
         2399 leaffaces
         2399 nodefaces
---- Portalize ----
           42 vis leafs
           42 vis clusters
           95 vis portals
---- FillOutside ----
           37 outleafs
---- MergeAll ----
           14 mergefaces
---- SolidBSP ----
           22 split nodes
           18 solid leafs
            5 empty leafs
            0 water leafs
            0 detail leafs
            0 detail illusionary leafs
            0 detail fence leafs
            0 illusionary visblocker leafs
          732 leaffaces
          732 nodefaces
---- Portalize ----
            5 vis leafs
            5 vis clusters
            8 vis portals
---- Tjunc ----
          169 world edges
         1734 edge points
          192 edges added by tjunctions
            0 faces added by tjunctions
---- MakeFaceEdges ----
---- GrowRegions ----
Processing hull 1...
Processing hull 2...
*** WARNING 19: No entities in empty space -- no filling performed (hull 2)
---- WriteBSPFile ----
Wrote Quake_Multiplayer_Map.bsp
          481 planes             9620
         9995 vertexes         119940
         1729 nodes             41496
          139 texinfo            5560
         8338 faces            166760
        10516 clipnodes         84128
         1227 leafs             34356
         8550 marksurfaces      17100
        33505 surfedges        134020
        20831 edges             83324
           16 textures         193828
              lightdata             0
              visdata               0
              entdata            1371

0.612 seconds elapsed
Peak memory usage: 28536224 (27.2M)
