---- qbsp / ericw-tools v0.18.1 ----
Input file: test_map_2.map
Output file: test_map_2.bsp

---- LoadMapFile ----
*** WARNING 06: No info_player_deathmatch entities in level
           36 faces
            6 brushes
            2 entities
            2 unique texnames
            8 texinfo

Opened WAD: C:/Users/Public/Quake_Level_Editor/quake-leveldesign-starterkit-master/wads/START.WAD
Opened WAD: C:/Users/Public/Quake_Level_Editor/quake-leveldesign-starterkit-master/wads/prototype_1_2.wad
Processing hull 0...
---- Brush_LoadEntity ----
            6 brushes
           12 planes
---- CSGFaces ----
           36 brushfaces
           36 csgfaces
           36 mergedfaces
---- SolidBSP ----
           24 split nodes
            6 solid leafs
           19 empty leafs
            0 water leafs
            0 detail leafs
            0 detail illusionary leafs
            0 detail fence leafs
            0 illusionary visblocker leafs
           72 leaffaces
           72 nodefaces
---- Portalize ----
           19 vis leafs
           19 vis clusters
           40 vis portals
---- FillOutside ----
           18 outleafs
---- MergeAll ----
            6 mergefaces
---- SolidBSP ----
            6 split nodes
            6 solid leafs
            1 empty leafs
            0 water leafs
            0 detail leafs
            0 detail illusionary leafs
            0 detail fence leafs
            0 illusionary visblocker leafs
           16 leaffaces
           16 nodefaces
---- Portalize ----
            1 vis leafs
            1 vis clusters
            0 vis portals
---- Tjunc ----
           20 world edges
           52 edge points
            0 edges added by tjunctions
            0 faces added by tjunctions
---- MakeFaceEdges ----
---- GrowRegions ----
Processing hull 1...
*** WARNING 19: No entities in empty space -- no filling performed (hull 1)
Processing hull 2...
*** WARNING 19: No entities in empty space -- no filling performed (hull 2)
---- WriteBSPFile ----
Wrote test_map_2.bsp
           34 planes              680
           18 vertexes            216
            6 nodes               144
            3 texinfo             120
           16 faces               320
          112 clipnodes           896
            2 leafs                56
           16 marksurfaces         32
           64 surfedges           256
           33 edges               132
            2 textures          43612
              lightdata             0
              visdata               0
              entdata             277

0.065 seconds elapsed
Peak memory usage: 416592 (406.8k)
