---- qbsp / ericw-tools v0.18.1 ----
Input file: texture_test.map
Output file: texture_test.bsp

---- LoadMapFile ----
*** WARNING 06: No info_player_deathmatch entities in level
           36 faces
            6 brushes
            2 entities
            1 unique texnames
            8 texinfo

*** WARNING 01: No valid WAD filenames in worldmodel
Processing hull 0...
---- Brush_LoadEntity ----
            6 brushes
           12 planes
---- CSGFaces ----
           36 brushfaces
           36 csgfaces
           36 mergedfaces
---- SolidBSP ----
           24 split nodes
            6 solid leafs
           19 empty leafs
            0 water leafs
            0 detail leafs
            0 detail illusionary leafs
            0 detail fence leafs
            0 illusionary visblocker leafs
           36 leaffaces
           36 nodefaces
---- Portalize ----
           19 vis leafs
           19 vis clusters
           40 vis portals
---- FillOutside ----
           18 outleafs
---- MergeAll ----
            6 mergefaces
---- SolidBSP ----
            6 split nodes
            6 solid leafs
            1 empty leafs
            0 water leafs
            0 detail leafs
            0 detail illusionary leafs
            0 detail fence leafs
            0 illusionary visblocker leafs
            6 leaffaces
            6 nodefaces
---- Portalize ----
            1 vis leafs
            1 vis clusters
            0 vis portals
---- Tjunc ----
           12 world edges
           24 edge points
            0 edges added by tjunctions
            0 faces added by tjunctions
---- MakeFaceEdges ----
---- GrowRegions ----
Processing hull 1...
*** WARNING 19: No entities in empty space -- no filling performed (hull 1)
Processing hull 2...
*** WARNING 19: No entities in empty space -- no filling performed (hull 2)
*** WARNING 16: Texture +0slipbot not found
---- WriteBSPFile ----
Wrote texture_test.bsp
           38 planes              760
            8 vertexes             96
            6 nodes               144
            3 texinfo             120
            6 faces               120
          112 clipnodes           896
            2 leafs                56
            6 marksurfaces         12
           24 surfedges            96
           13 edges                52
            1 textures              8
              lightdata             0
              visdata               0
              entdata             117

0.056 seconds elapsed
Peak memory usage: 327644 (320.0k)
